Master_IEEE33_test.dss
//----------------------------------------------------------------------------------------------------------------------------------------------------------------------------------------------------
// IEEE33 bus radial test sytem 
//----------------------------------------------------------------------------------------------------------------------------------------------------------------------------------------------------

Clear                                                                              

Set DefaultBaseFrequency=60                                            


//----------------------------------------------------------------------------Equivalent Thevenin-----------------------------------------------------------------------------------------------------------------------
New Circuit.IEEE_33_BUS                                                               
~ basekv=12.66 pu=1.0 Bus1=1 MVAsc3=450000                                  

Redirect Line_IEEE33.DSS
Batchedit Line..* C1=0 C0=0 
Batchedit Line..* units=km
Batchedit Line..* length=1

Redirect Load_IEEE33.DSS
Batchedit Load..* Vminpu=0.9 
Redirect Gen_IEEE33.DSS

//---------------------------------------CALCULATION OPTIONS-----------------------------------------------------------//

set voltagebases= 12.66  
calcvoltagebases

!solve